test/data/three_phase/case_300/node.glm

object load {
	name bus1;
	phases ABC;
	nominal_voltage 66.395 kV;
	bustype PQ;
	voltage_A 68.2809+5.9500d kV;
	voltage_B 68.2809-114.0500d kV;
	voltage_C 68.2809+125.9500d kV;
	constant_power_A 30.0000+16.3333j MVA;
	constant_power_B 30.0000+16.3333j MVA;
	constant_power_C 30.0000+16.3333j MVA;
}
object load {
	name bus2;
	phases ABC;
	nominal_voltage 66.395 kV;
	bustype PQ;
	voltage_A 68.7457+7.7400d kV;
	voltage_B 68.7457-112.2600d kV;
	voltage_C 68.7457+127.7400d kV;
	constant_power_A 18.6667+5.0000j MVA;
	constant_power_B 18.6667+5.0000j MVA;
	constant_power_C 18.6667+5.0000j MVA;
}
object load {
	name bus3;
	phases ABC;
	nominal_voltage 132.791 kV;
	bustype PQ;
	voltage_A 132.4055+6.6400d kV;
	voltage_B 132.4055-113.3600d kV;
	voltage_C 132.4055+126.6400d kV;
	constant_power_A 6.6667+0.0000j MVA;
	constant_power_B 6.6667+0.0000j MVA;
	constant_power_C 6.6667+0.0000j MVA;
}
object node {
	name bus4;
	phases ABC;
	nominal_voltage 199.186 kV;
	bustype PQ;
	voltage_A 205.3208+4.7100d kV;
	voltage_B 205.3208-115.2900d kV;
	voltage_C 205.3208+124.7100d kV;
}
object load {
	name bus5;
	phases ABC;
	nominal_voltage 66.395 kV;
	bustype PQ;
	voltage_A 67.6634+4.6800d kV;
	voltage_B 67.6634-115.3200d kV;
	voltage_C 67.6634+124.6800d kV;
	constant_power_A 117.6667+43.3333j MVA;
	constant_power_B 117.6667+43.3333j MVA;
	constant_power_C 117.6667+43.3333j MVA;
}
object load {
	name bus6;
	phases ABC;
	nominal_voltage 66.395 kV;
	bustype PQ;
	voltage_A 68.4668+6.9900d kV;
	voltage_B 68.4668-113.0100d kV;
	voltage_C 68.4668+126.9900d kV;
	constant_power_A 40.0000+13.6667j MVA;
	constant_power_B 40.0000+13.6667j MVA;
	constant_power_C 40.0000+13.6667j MVA;
}
object node {
	name bus7;
	phases ABC;
	nominal_voltage 132.791 kV;
	bustype PQ;
	voltage_A 131.9141+6.1900d kV;
	voltage_B 131.9141-113.8100d kV;
	voltage_C 131.9141+126.1900d kV;
}
object load {
	name bus8;
	phases ABC;
	nominal_voltage 66.395 kV;
	bustype PQ;
	voltage_A 67.4111+2.4000d kV;
	voltage_B 67.4111-117.6000d kV;
	voltage_C 67.4111+122.4000d kV;
	constant_power_A 21.0000+4.6667j MVA;
	constant_power_B 21.0000+4.6667j MVA;
	constant_power_C 21.0000+4.6667j MVA;
}
object load {
	name bus9;
	phases ABC;
	nominal_voltage 66.395 kV;
	bustype PQ;
	voltage_A 66.6210+2.8500d kV;
	voltage_B 66.6210-117.1500d kV;
	voltage_C 66.6210+122.8500d kV;
	constant_power_A 32.0000+14.3333j MVA;
	constant_power_B 32.0000+14.3333j MVA;
	constant_power_C 32.0000+14.3333j MVA;
}
object load {
	name bus10;
	phases ABC;
	nominal_voltage 132.791 kV;
	bustype PQ;
	voltage_A 135.5128+1.3500d kV;
	voltage_B 135.5128-118.6500d kV;
	voltage_C 135.5128+121.3500d kV;
	constant_power_A 51.0000+11.0000j MVA;
	constant_power_B 51.0000+11.0000j MVA;
	constant_power_C 51.0000+11.0000j MVA;
}
object load {
	name bus11;
	phases ABC;
	nominal_voltage 66.395 kV;
	bustype PQ;
	voltage_A 66.7737+2.4600d kV;
	voltage_B 66.7737-117.5400d kV;
	voltage_C 66.7737+122.4600d kV;
	constant_power_A 27.6667+7.0000j MVA;
	constant_power_B 27.6667+7.0000j MVA;
	constant_power_C 27.6667+7.0000j MVA;
}
object node {
	name bus12;
	phases ABC;
	nominal_voltage 132.791 kV;
	bustype PQ;
	voltage_A 132.4453+5.2100d kV;
	voltage_B 132.4453-114.7900d kV;
	voltage_C 132.4453+125.2100d kV;
}
object load {
	name bus13;
	phases ABC;
	nominal_voltage 66.395 kV;
	bustype PQ;
	voltage_A 66.2426-0.5500d kV;
	voltage_B 66.2426-120.5500d kV;
	voltage_C 66.2426+119.4500d kV;
	constant_power_A 19.3333+3.3333j MVA;
	constant_power_B 19.3333+3.3333j MVA;
	constant_power_C 19.3333+3.3333j MVA;
}
object load {
	name bus14;
	phases ABC;
	nominal_voltage 66.395 kV;
	bustype PQ;
	voltage_A 66.3355-4.8100d kV;
	voltage_B 66.3355-124.8100d kV;
	voltage_C 66.3355+115.1900d kV;
	constant_power_A 53.3333+20.0000j MVA;
	constant_power_B 53.3333+20.0000j MVA;
	constant_power_C 53.3333+20.0000j MVA;
}
object load {
	name bus15;
	phases ABC;
	nominal_voltage 66.395 kV;
	bustype PQ;
	voltage_A 68.6726-8.5900d kV;
	voltage_B 68.6726-128.5900d kV;
	voltage_C 68.6726+111.4100d kV;
	constant_power_A 42.2333+7.6667j MVA;
	constant_power_B 42.2333+7.6667j MVA;
	constant_power_C 42.2333+7.6667j MVA;
}
object node {
	name bus16;
	phases ABC;
	nominal_voltage 199.186 kV;
	bustype PQ;
	voltage_A 205.4602-2.6500d kV;
	voltage_B 205.4602-122.6500d kV;
	voltage_C 205.4602+117.3500d kV;
}
object load {
	name bus17;
	phases ABC;
	nominal_voltage 66.395 kV;
	bustype PQ;
	voltage_A 70.7043-13.1000d kV;
	voltage_B 70.7043-133.1000d kV;
	voltage_C 70.7043+106.9000d kV;
	constant_power_A 187.0000+73.3333j MVA;
	constant_power_B 187.0000+73.3333j MVA;
	constant_power_C 187.0000+73.3333j MVA;
}
object node {
	name bus19;
	phases ABC;
	nominal_voltage 132.791 kV;
	bustype PQ;
	voltage_A 130.4003+1.0800d kV;
	voltage_B 130.4003-118.9200d kV;
	voltage_C 130.4003+121.0800d kV;
}
object load {
	name bus20;
	phases ABC;
	nominal_voltage 66.395 kV;
	bustype PQ;
	voltage_A 66.4617-2.4600d kV;
	voltage_B 66.4617-122.4600d kV;
	voltage_C 66.4617+117.5400d kV;
	constant_power_A 201.6667+40.0000j MVA;
	constant_power_B 201.6667+40.0000j MVA;
	constant_power_C 201.6667+40.0000j MVA;
}
object load {
	name bus21;
	phases ABC;
	nominal_voltage 132.791 kV;
	bustype PQ;
	voltage_A 129.4974+1.6200d kV;
	voltage_B 129.4974-118.3800d kV;
	voltage_C 129.4974+121.6200d kV;
	constant_power_A 25.6667+0.3333j MVA;
	constant_power_B 25.6667+0.3333j MVA;
	constant_power_C 25.6667+0.3333j MVA;
}
object load {
	name bus22;
	phases ABC;
	nominal_voltage 66.395 kV;
	bustype PQ;
	voltage_A 66.1496-1.9700d kV;
	voltage_B 66.1496-121.9700d kV;
	voltage_C 66.1496+118.0300d kV;
	constant_power_A 27.0000+7.6667j MVA;
	constant_power_B 27.0000+7.6667j MVA;
	constant_power_C 27.0000+7.6667j MVA;
}
object load {
	name bus23;
	phases ABC;
	nominal_voltage 66.395 kV;
	bustype PQ;
	voltage_A 69.7217+3.9400d kV;
	voltage_B 69.7217-116.0600d kV;
	voltage_C 69.7217+123.9400d kV;
	constant_power_A 7.0000+2.3333j MVA;
	constant_power_B 7.0000+2.3333j MVA;
	constant_power_C 7.0000+2.3333j MVA;
}
object node {
	name bus24;
	phases ABC;
	nominal_voltage 132.791 kV;
	bustype PQ;
	voltage_A 133.5475+6.0200d kV;
	voltage_B 133.5475-113.9800d kV;
	voltage_C 133.5475+126.0200d kV;
}
object load {
	name bus25;
	phases ABC;
	nominal_voltage 66.395 kV;
	bustype PQ;
	voltage_A 67.9489+1.4400d kV;
	voltage_B 67.9489-118.5600d kV;
	voltage_C 67.9489+121.4400d kV;
	constant_power_A 15.0000+4.0000j MVA;
	constant_power_B 15.0000+4.0000j MVA;
	constant_power_C 15.0000+4.0000j MVA;
}
object load {
	name bus26;
	phases ABC;
	nominal_voltage 66.395 kV;
	bustype PQ;
	voltage_A 66.3023-1.7300d kV;
	voltage_B 66.3023-121.7300d kV;
	voltage_C 66.3023+118.2700d kV;
	constant_power_A 9.3333+3.0000j MVA;
	constant_power_B 9.3333+3.0000j MVA;
	constant_power_C 9.3333+3.0000j MVA;
}
object load {
	name bus27;
	phases ABC;
	nominal_voltage 66.395 kV;
	bustype PQ;
	voltage_A 64.7354-4.9000d kV;
	voltage_B 64.7354-124.9000d kV;
	voltage_C 64.7354+115.1000d kV;
	constant_power_A 23.0000+4.3333j MVA;
	constant_power_B 23.0000+4.3333j MVA;
	constant_power_C 23.0000+4.3333j MVA;
}
object load {
	name bus33;
	phases ABC;
	nominal_voltage 66.395 kV;
	bustype PQ;
	voltage_A 68.0153-12.0200d kV;
	voltage_B 68.0153-132.0200d kV;
	voltage_C 68.0153+107.9800d kV;
	constant_power_A 18.3333+2.0000j MVA;
	constant_power_B 18.3333+2.0000j MVA;
	constant_power_C 18.3333+2.0000j MVA;
}
object node {
	name bus34;
	phases ABC;
	nominal_voltage 199.186 kV;
	bustype PQ;
	voltage_A 207.4321-7.9400d kV;
	voltage_B 207.4321-127.9400d kV;
	voltage_C 207.4321+112.0600d kV;
}
object node {
	name bus35;
	phases ABC;
	nominal_voltage 66.395 kV;
	bustype PQ;
	voltage_A 64.7819-25.7200d kV;
	voltage_B 64.7819-145.7200d kV;
	voltage_C 64.7819+94.2800d kV;
}
object node {
	name bus36;
	phases ABC;
	nominal_voltage 132.791 kV;
	bustype PQ;
	voltage_A 132.9366-22.5900d kV;
	voltage_B 132.9366-142.5900d kV;
	voltage_C 132.9366+97.4100d kV;
}
object load {
	name bus37;
	phases ABC;
	nominal_voltage 66.395 kV;
	bustype PQ;
	voltage_A 67.7298-11.2300d kV;
	voltage_B 67.7298-131.2300d kV;
	voltage_C 67.7298+108.7700d kV;
	constant_power_A 28.3333+10.6667j MVA;
	constant_power_B 28.3333+10.6667j MVA;
	constant_power_C 28.3333+10.6667j MVA;
}
object load {
	name bus38;
	phases ABC;
	nominal_voltage 66.395 kV;
	bustype PQ;
	voltage_A 67.7365-12.5600d kV;
	voltage_B 67.7365-132.5600d kV;
	voltage_C 67.7365+107.4400d kV;
	constant_power_A 51.6667+6.0000j MVA;
	constant_power_B 51.6667+6.0000j MVA;
	constant_power_C 51.6667+6.0000j MVA;
}
object node {
	name bus39;
	phases ABC;
	nominal_voltage 199.186 kV;
	bustype PQ;
	voltage_A 209.8423-5.8100d kV;
	voltage_B 209.8423-125.8100d kV;
	voltage_C 209.8423+114.1900d kV;
}
object load {
	name bus40;
	phases ABC;
	nominal_voltage 66.395 kV;
	bustype PQ;
	voltage_A 67.8294-12.7800d kV;
	voltage_B 67.8294-132.7800d kV;
	voltage_C 67.8294+107.2200d kV;
	constant_power_A 15.3333-7.0000j MVA;
	constant_power_B 15.3333-7.0000j MVA;
	constant_power_C 15.3333-7.0000j MVA;
}
object load {
	name bus41;
	phases ABC;
	nominal_voltage 66.395 kV;
	bustype PQ;
	voltage_A 68.3340-10.4500d kV;
	voltage_B 68.3340-130.4500d kV;
	voltage_C 68.3340+109.5500d kV;
	constant_power_A 28.6667+0.0000j MVA;
	constant_power_B 28.6667+0.0000j MVA;
	constant_power_C 28.6667+0.0000j MVA;
}
object node {
	name bus42;
	phases ABC;
	nominal_voltage 199.186 kV;
	bustype PQ;
	voltage_A 208.1094-7.4400d kV;
	voltage_B 208.1094-127.4400d kV;
	voltage_C 208.1094+112.5600d kV;
}
object load {
	name bus43;
	phases ABC;
	nominal_voltage 66.395 kV;
	bustype PQ;
	voltage_A 66.4351-16.7900d kV;
	voltage_B 66.4351-136.7900d kV;
	voltage_C 66.4351+103.2100d kV;
	constant_power_A 13.0000+3.0000j MVA;
	constant_power_B 13.0000+3.0000j MVA;
	constant_power_C 13.0000+3.0000j MVA;
}
object load {
	name bus44;
	phases ABC;
	nominal_voltage 66.395 kV;
	bustype PQ;
	voltage_A 66.9663-17.4700d kV;
	voltage_B 66.9663-137.4700d kV;
	voltage_C 66.9663+102.5300d kV;
	constant_power_A 65.0000+9.6667j MVA;
	constant_power_B 65.0000+9.6667j MVA;
	constant_power_C 65.0000+9.6667j MVA;
}
object node {
	name bus45;
	phases ABC;
	nominal_voltage 132.791 kV;
	bustype PQ;
	voltage_A 135.6456-14.7400d kV;
	voltage_B 135.6456-134.7400d kV;
	voltage_C 135.6456+105.2600d kV;
}
object node {
	name bus46;
	phases ABC;
	nominal_voltage 199.186 kV;
	bustype PQ;
	voltage_A 206.0378-11.7500d kV;
	voltage_B 206.0378-131.7500d kV;
	voltage_C 206.0378+108.2500d kV;
}
object load {
	name bus47;
	phases ABC;
	nominal_voltage 66.395 kV;
	bustype PQ;
	voltage_A 64.9147-23.1700d kV;
	voltage_B 64.9147-143.1700d kV;
	voltage_C 64.9147+96.8300d kV;
	constant_power_A 19.3333+3.9333j MVA;
	constant_power_B 19.3333+3.9333j MVA;
	constant_power_C 19.3333+3.9333j MVA;
}
object load {
	name bus48;
	phases ABC;
	nominal_voltage 66.395 kV;
	bustype PQ;
	voltage_A 66.5214-16.0900d kV;
	voltage_B 66.5214-136.0900d kV;
	voltage_C 66.5214+103.9100d kV;
	constant_power_A 13.6667+6.3333j MVA;
	constant_power_B 13.6667+6.3333j MVA;
	constant_power_C 13.6667+6.3333j MVA;
}
object load {
	name bus49;
	phases ABC;
	nominal_voltage 66.395 kV;
	bustype PQ;
	voltage_A 69.5491-2.9500d kV;
	voltage_B 69.5491-122.9500d kV;
	voltage_C 69.5491+117.0500d kV;
	constant_power_A 30.6667+8.6667j MVA;
	constant_power_B 30.6667+8.6667j MVA;
	constant_power_C 30.6667+8.6667j MVA;
}
object load {
	name bus51;
	phases ABC;
	nominal_voltage 66.395 kV;
	bustype PQ;
	voltage_A 68.0751-8.1500d kV;
	voltage_B 68.0751-128.1500d kV;
	voltage_C 68.0751+111.8500d kV;
	constant_power_A -1.6667+1.6667j MVA;
	constant_power_B -1.6667+1.6667j MVA;
	constant_power_C -1.6667+1.6667j MVA;
}
object load {
	name bus52;
	phases ABC;
	nominal_voltage 66.395 kV;
	bustype PQ;
	voltage_A 66.2559-11.8600d kV;
	voltage_B 66.2559-131.8600d kV;
	voltage_C 66.2559+108.1400d kV;
	constant_power_A 20.3333+9.3333j MVA;
	constant_power_B 20.3333+9.3333j MVA;
	constant_power_C 20.3333+9.3333j MVA;
}
object load {
	name bus53;
	phases ABC;
	nominal_voltage 66.395 kV;
	bustype PQ;
	voltage_A 66.1231-17.6000d kV;
	voltage_B 66.1231-137.6000d kV;
	voltage_C 66.1231+102.4000d kV;
	constant_power_A 23.0000+1.0000j MVA;
	constant_power_B 23.0000+1.0000j MVA;
	constant_power_C 23.0000+1.0000j MVA;
}
object load {
	name bus54;
	phases ABC;
	nominal_voltage 66.395 kV;
	bustype PQ;
	voltage_A 66.7273-16.2500d kV;
	voltage_B 66.7273-136.2500d kV;
	voltage_C 66.7273+103.7500d kV;
	constant_power_A 3.3333+0.3333j MVA;
	constant_power_B 3.3333+0.3333j MVA;
	constant_power_C 3.3333+0.3333j MVA;
}
object load {
	name bus55;
	phases ABC;
	nominal_voltage 66.395 kV;
	bustype PQ;
	voltage_A 67.3912-12.2100d kV;
	voltage_B 67.3912-132.2100d kV;
	voltage_C 67.3912+107.7900d kV;
	constant_power_A 7.3333+3.3333j MVA;
	constant_power_B 7.3333+3.3333j MVA;
	constant_power_C 7.3333+3.3333j MVA;
}
object load {
	name bus57;
	phases ABC;
	nominal_voltage 66.395 kV;
	bustype PQ;
	voltage_A 68.6195-8.0000d kV;
	voltage_B 68.6195-128.0000d kV;
	voltage_C 68.6195+112.0000d kV;
	constant_power_A 32.6667+6.6667j MVA;
	constant_power_B 32.6667+6.6667j MVA;
	constant_power_C 32.6667+6.6667j MVA;
}
object load {
	name bus58;
	phases ABC;
	nominal_voltage 66.395 kV;
	bustype PQ;
	voltage_A 65.8508-5.9900d kV;
	voltage_B 65.8508-125.9900d kV;
	voltage_C 65.8508+114.0100d kV;
	constant_power_A 4.6667+0.3333j MVA;
	constant_power_B 4.6667+0.3333j MVA;
	constant_power_C 4.6667+0.3333j MVA;
}
object load {
	name bus59;
	phases ABC;
	nominal_voltage 66.395 kV;
	bustype PQ;
	voltage_A 64.9943-5.2900d kV;
	voltage_B 64.9943-125.2900d kV;
	voltage_C 64.9943+114.7100d kV;
	constant_power_A 72.6667+35.3333j MVA;
	constant_power_B 72.6667+35.3333j MVA;
	constant_power_C 72.6667+35.3333j MVA;
}
object node {
	name bus60;
	phases ABC;
	nominal_voltage 132.791 kV;
	bustype PQ;
	voltage_A 136.0572-9.5600d kV;
	voltage_B 136.0572-129.5600d kV;
	voltage_C 136.0572+110.4400d kV;
}
object load {
	name bus61;
	phases ABC;
	nominal_voltage 66.395 kV;
	bustype PQ;
	voltage_A 65.7712-3.4700d kV;
	voltage_B 65.7712-123.4700d kV;
	voltage_C 65.7712+116.5300d kV;
	constant_power_A 75.6667+36.6667j MVA;
	constant_power_B 75.6667+36.6667j MVA;
	constant_power_C 75.6667+36.6667j MVA;
}
object node {
	name bus62;
	phases ABC;
	nominal_voltage 132.791 kV;
	bustype PQ;
	voltage_A 134.9152-1.1000d kV;
	voltage_B 134.9152-121.1000d kV;
	voltage_C 134.9152+118.9000d kV;
}
object load {
	name bus63;
	phases ABC;
	nominal_voltage 66.395 kV;
	bustype PQ;
	voltage_A 63.6266-17.6200d kV;
	voltage_B 63.6266-137.6200d kV;
	voltage_C 63.6266+102.3800d kV;
	constant_power_A 23.3333+10.0000j MVA;
	constant_power_B 23.3333+10.0000j MVA;
	constant_power_C 23.3333+10.0000j MVA;
}
object node {
	name bus64;
	phases ABC;
	nominal_voltage 132.791 kV;
	bustype PQ;
	voltage_A 125.8855-12.9700d kV;
	voltage_B 125.8855-132.9700d kV;
	voltage_C 125.8855+107.0300d kV;
}
object node {
	name bus69;
	phases ABC;
	nominal_voltage 66.395 kV;
	bustype PQ;
	voltage_A 63.9387-25.6600d kV;
	voltage_B 63.9387-145.6600d kV;
	voltage_C 63.9387+94.3400d kV;
}
object load {
	name bus70;
	phases ABC;
	nominal_voltage 66.395 kV;
	bustype PQ;
	voltage_A 63.1618-35.1600d kV;
	voltage_B 63.1618-155.1600d kV;
	voltage_C 63.1618+84.8400d kV;
	constant_power_A 18.6667+6.6667j MVA;
	constant_power_B 18.6667+6.6667j MVA;
	constant_power_C 18.6667+6.6667j MVA;
}
object load {
	name bus71;
	phases ABC;
	nominal_voltage 66.395 kV;
	bustype PQ;
	voltage_A 65.0209-29.8800d kV;
	voltage_B 65.0209-149.8800d kV;
	voltage_C 65.0209+90.1200d kV;
	constant_power_A 38.6667+12.6667j MVA;
	constant_power_B 38.6667+12.6667j MVA;
	constant_power_C 38.6667+12.6667j MVA;
}
object load {
	name bus72;
	phases ABC;
	nominal_voltage 66.395 kV;
	bustype PQ;
	voltage_A 64.3769-27.4800d kV;
	voltage_B 64.3769-147.4800d kV;
	voltage_C 64.3769+92.5200d kV;
	constant_power_A 19.0000+6.3333j MVA;
	constant_power_B 19.0000+6.3333j MVA;
	constant_power_C 19.0000+6.3333j MVA;
}
object load {
	name bus73;
	phases ABC;
	nominal_voltage 66.395 kV;
	bustype PQ;
	voltage_A 64.9014-25.7700d kV;
	voltage_B 64.9014-145.7700d kV;
	voltage_C 64.9014+94.2300d kV;
	constant_power_A 74.6667+23.6667j MVA;
	constant_power_B 74.6667+23.6667j MVA;
	constant_power_C 74.6667+23.6667j MVA;
}
object node {
	name bus74;
	phases ABC;
	nominal_voltage 132.791 kV;
	bustype PQ;
	voltage_A 132.3125-22.0000d kV;
	voltage_B 132.3125-142.0000d kV;
	voltage_C 132.3125+98.0000d kV;
}
object load {
	name bus76;
	phases ABC;
	nominal_voltage 66.395 kV;
	bustype PQ;
	voltage_A 63.9519-26.5400d kV;
	voltage_B 63.9519-146.5400d kV;
	voltage_C 63.9519+93.4600d kV;
	constant_power_A 69.3333+35.6667j MVA;
	constant_power_B 69.3333+35.6667j MVA;
	constant_power_C 69.3333+35.6667j MVA;
}
object load {
	name bus77;
	phases ABC;
	nominal_voltage 66.395 kV;
	bustype PQ;
	voltage_A 65.3130-24.9400d kV;
	voltage_B 65.3130-144.9400d kV;
	voltage_C 65.3130+95.0600d kV;
	constant_power_A 24.6667+9.3333j MVA;
	constant_power_B 24.6667+9.3333j MVA;
	constant_power_C 24.6667+9.3333j MVA;
}
object node {
	name bus78;
	phases ABC;
	nominal_voltage 66.395 kV;
	bustype PQ;
	voltage_A 65.7313-24.0500d kV;
	voltage_B 65.7313-144.0500d kV;
	voltage_C 65.7313+95.9500d kV;
}
object load {
	name bus79;
	phases ABC;
	nominal_voltage 66.395 kV;
	bustype PQ;
	voltage_A 65.2002-24.9700d kV;
	voltage_B 65.2002-144.9700d kV;
	voltage_C 65.2002+95.0300d kV;
	constant_power_A 16.0000+4.6667j MVA;
	constant_power_B 16.0000+4.6667j MVA;
	constant_power_C 16.0000+4.6667j MVA;
}
object load {
	name bus80;
	phases ABC;
	nominal_voltage 66.395 kV;
	bustype PQ;
	voltage_A 65.5454-24.9700d kV;
	voltage_B 65.5454-144.9700d kV;
	voltage_C 65.5454+95.0300d kV;
	constant_power_A 9.3333+2.3333j MVA;
	constant_power_B 9.3333+2.3333j MVA;
	constant_power_C 9.3333+2.3333j MVA;
}
object node {
	name bus81;
	phases ABC;
	nominal_voltage 199.186 kV;
	bustype PQ;
	voltage_A 205.9582-18.8900d kV;
	voltage_B 205.9582-138.8900d kV;
	voltage_C 205.9582+101.1100d kV;
}
object load {
	name bus84;
	phases ABC;
	nominal_voltage 66.395 kV;
	bustype PQ;
	voltage_A 68.0552-17.1600d kV;
	voltage_B 68.0552-137.1600d kV;
	voltage_C 68.0552+102.8400d kV;
	constant_power_A 12.3333+4.3333j MVA;
	constant_power_B 12.3333+4.3333j MVA;
	constant_power_C 12.3333+4.3333j MVA;
}
object node {
	name bus85;
	phases ABC;
	nominal_voltage 132.791 kV;
	bustype PQ;
	voltage_A 131.0908-17.6800d kV;
	voltage_B 131.0908-137.6800d kV;
	voltage_C 131.0908+102.3200d kV;
}
object node {
	name bus86;
	phases ABC;
	nominal_voltage 132.791 kV;
	bustype PQ;
	voltage_A 131.5822-14.1900d kV;
	voltage_B 131.5822-134.1900d kV;
	voltage_C 131.5822+105.8100d kV;
}
object node {
	name bus87;
	phases ABC;
	nominal_voltage 132.791 kV;
	bustype PQ;
	voltage_A 131.7415-7.7700d kV;
	voltage_B 131.7415-127.7700d kV;
	voltage_C 131.7415+112.2300d kV;
}
object node {
	name bus88;
	phases ABC;
	nominal_voltage 132.791 kV;
	bustype PQ;
	voltage_A 134.7957-20.9600d kV;
	voltage_B 134.7957-140.9600d kV;
	voltage_C 134.7957+99.0400d kV;
}
object load {
	name bus89;
	phases ABC;
	nominal_voltage 66.395 kV;
	bustype PQ;
	voltage_A 68.5000-11.1300d kV;
	voltage_B 68.5000-131.1300d kV;
	voltage_C 68.5000+108.8700d kV;
	constant_power_A 14.7333+0.0000j MVA;
	constant_power_B 14.7333+0.0000j MVA;
	constant_power_C 14.7333+0.0000j MVA;
}
object load {
	name bus90;
	phases ABC;
	nominal_voltage 66.395 kV;
	bustype PQ;
	voltage_A 68.2012-11.2300d kV;
	voltage_B 68.2012-131.2300d kV;
	voltage_C 68.2012+108.7700d kV;
	constant_power_A 22.0000+0.0000j MVA;
	constant_power_B 22.0000+0.0000j MVA;
	constant_power_C 22.0000+0.0000j MVA;
}
object load {
	name bus91;
	phases ABC;
	nominal_voltage 66.395 kV;
	bustype PQ;
	voltage_A 69.8478-9.4000d kV;
	voltage_B 69.8478-129.4000d kV;
	voltage_C 69.8478+110.6000d kV;
	constant_power_A 5.8000+0.0000j MVA;
	constant_power_B 5.8000+0.0000j MVA;
	constant_power_C 5.8000+0.0000j MVA;
}
object load {
	name bus92;
	phases ABC;
	nominal_voltage 66.395 kV;
	bustype PQ;
	voltage_A 69.8478-6.2000d kV;
	voltage_B 69.8478-126.2000d kV;
	voltage_C 69.8478+113.8000d kV;
	constant_power_A 5.2667+0.0000j MVA;
	constant_power_B 5.2667+0.0000j MVA;
	constant_power_C 5.2667+0.0000j MVA;
}
object load {
	name bus94;
	phases ABC;
	nominal_voltage 66.395 kV;
	bustype PQ;
	voltage_A 65.9305-9.4200d kV;
	voltage_B 65.9305-129.4200d kV;
	voltage_C 65.9305+110.5800d kV;
	constant_power_A 20.1000+0.0000j MVA;
	constant_power_B 20.1000+0.0000j MVA;
	constant_power_C 20.1000+0.0000j MVA;
}
object load {
	name bus97;
	phases ABC;
	nominal_voltage 66.395 kV;
	bustype PQ;
	voltage_A 67.6103-13.2400d kV;
	voltage_B 67.6103-133.2400d kV;
	voltage_C 67.6103+106.7600d kV;
	constant_power_A 13.3000+0.0000j MVA;
	constant_power_B 13.3000+0.0000j MVA;
	constant_power_C 13.3000+0.0000j MVA;
}
object load {
	name bus98;
	phases ABC;
	nominal_voltage 66.395 kV;
	bustype PQ;
	voltage_A 66.3953-14.6000d kV;
	voltage_B 66.3953-134.6000d kV;
	voltage_C 66.3953+105.4000d kV;
	constant_power_A 22.2333+0.0000j MVA;
	constant_power_B 22.2333+0.0000j MVA;
	constant_power_C 22.2333+0.0000j MVA;
}
object load {
	name bus99;
	phases ABC;
	nominal_voltage 66.395 kV;
	bustype PQ;
	voltage_A 65.6915-20.2700d kV;
	voltage_B 65.6915-140.2700d kV;
	voltage_C 65.6915+99.7300d kV;
	constant_power_A 27.8333+0.0000j MVA;
	constant_power_B 27.8333+0.0000j MVA;
	constant_power_C 27.8333+0.0000j MVA;
}
object node {
	name bus100;
	phases ABC;
	nominal_voltage 66.395 kV;
	bustype PQ;
	voltage_A 66.7937-14.4500d kV;
	voltage_B 66.7937-134.4500d kV;
	voltage_C 66.7937+105.5500d kV;
}
object load {
	name bus102;
	phases ABC;
	nominal_voltage 66.395 kV;
	bustype PQ;
	voltage_A 66.4484-15.2300d kV;
	voltage_B 66.4484-135.2300d kV;
	voltage_C 66.4484+104.7700d kV;
	constant_power_A 25.9333+0.0000j MVA;
	constant_power_B 25.9333+0.0000j MVA;
	constant_power_C 25.9333+0.0000j MVA;
}
object load {
	name bus103;
	phases ABC;
	nominal_voltage 66.395 kV;
	bustype PQ;
	voltage_A 68.3075-12.0600d kV;
	voltage_B 68.3075-132.0600d kV;
	voltage_C 68.3075+107.9400d kV;
	constant_power_A 10.6667+0.0000j MVA;
	constant_power_B 10.6667+0.0000j MVA;
	constant_power_C 10.6667+0.0000j MVA;
}
object load {
	name bus104;
	phases ABC;
	nominal_voltage 66.395 kV;
	bustype PQ;
	voltage_A 66.1164-17.3300d kV;
	voltage_B 66.1164-137.3300d kV;
	voltage_C 66.1164+102.6700d kV;
	constant_power_A 2.8667+0.0000j MVA;
	constant_power_B 2.8667+0.0000j MVA;
	constant_power_C 2.8667+0.0000j MVA;
}
object load {
	name bus105;
	phases ABC;
	nominal_voltage 66.395 kV;
	bustype PQ;
	voltage_A 67.8759-12.9400d kV;
	voltage_B 67.8759-132.9400d kV;
	voltage_C 67.8759+107.0600d kV;
	constant_power_A 16.5333+0.0000j MVA;
	constant_power_B 16.5333+0.0000j MVA;
	constant_power_C 16.5333+0.0000j MVA;
}
object load {
	name bus107;
	phases ABC;
	nominal_voltage 66.395 kV;
	bustype PQ;
	voltage_A 67.0260-16.0300d kV;
	voltage_B 67.0260-136.0300d kV;
	voltage_C 67.0260+103.9700d kV;
	constant_power_A 1.5333+0.0000j MVA;
	constant_power_B 1.5333+0.0000j MVA;
	constant_power_C 1.5333+0.0000j MVA;
}
object load {
	name bus108;
	phases ABC;
	nominal_voltage 66.395 kV;
	bustype PQ;
	voltage_A 65.7313-20.2600d kV;
	voltage_B 65.7313-140.2600d kV;
	voltage_C 65.7313+99.7400d kV;
	constant_power_A 37.3667+0.0000j MVA;
	constant_power_B 37.3667+0.0000j MVA;
	constant_power_C 37.3667+0.0000j MVA;
}
object load {
	name bus109;
	phases ABC;
	nominal_voltage 66.395 kV;
	bustype PQ;
	voltage_A 64.7288-26.0600d kV;
	voltage_B 64.7288-146.0600d kV;
	voltage_C 64.7288+93.9400d kV;
	constant_power_A 10.2333+0.0000j MVA;
	constant_power_B 10.2333+0.0000j MVA;
	constant_power_C 10.2333+0.0000j MVA;
}
object load {
	name bus110;
	phases ABC;
	nominal_voltage 66.395 kV;
	bustype PQ;
	voltage_A 64.6026-24.7200d kV;
	voltage_B 64.6026-144.7200d kV;
	voltage_C 64.6026+95.2800d kV;
	constant_power_A 21.0000+0.0000j MVA;
	constant_power_B 21.0000+0.0000j MVA;
	constant_power_C 21.0000+0.0000j MVA;
}
object load {
	name bus112;
	phases ABC;
	nominal_voltage 66.395 kV;
	bustype PQ;
	voltage_A 64.5694-28.6900d kV;
	voltage_B 64.5694-148.6900d kV;
	voltage_C 64.5694+91.3100d kV;
	constant_power_A 6.5333+0.0000j MVA;
	constant_power_B 6.5333+0.0000j MVA;
	constant_power_C 6.5333+0.0000j MVA;
}
object load {
	name bus113;
	phases ABC;
	nominal_voltage 66.395 kV;
	bustype PQ;
	voltage_A 64.4034-25.3800d kV;
	voltage_B 64.4034-145.3800d kV;
	voltage_C 64.4034+94.6200d kV;
	constant_power_A 8.7333+0.0000j MVA;
	constant_power_B 8.7333+0.0000j MVA;
	constant_power_C 8.7333+0.0000j MVA;
}
object load {
	name bus114;
	phases ABC;
	nominal_voltage 66.395 kV;
	bustype PQ;
	voltage_A 64.7155-28.5900d kV;
	voltage_B 64.7155-148.5900d kV;
	voltage_C 64.7155+91.4100d kV;
	constant_power_A 6.0667+0.0000j MVA;
	constant_power_B 6.0667+0.0000j MVA;
	constant_power_C 6.0667+0.0000j MVA;
}
object node {
	name bus115;
	phases ABC;
	nominal_voltage 66.395 kV;
	bustype PQ;
	voltage_A 63.7594-13.5700d kV;
	voltage_B 63.7594-133.5700d kV;
	voltage_C 63.7594+106.4300d kV;
}
object node {
	name bus116;
	phases ABC;
	nominal_voltage 66.395 kV;
	bustype PQ;
	voltage_A 68.0485-12.6900d kV;
	voltage_B 68.0485-132.6900d kV;
	voltage_C 68.0485+107.3100d kV;
}
object load {
	name bus117;
	phases ABC;
	nominal_voltage 66.395 kV;
	bustype PQ;
	voltage_A 62.0663-4.7200d kV;
	voltage_B 62.0663-124.7200d kV;
	voltage_C 62.0663+115.2800d kV;
	constant_impedance_A 0.0000-40.6923j Ohm;
	constant_impedance_B 0.0000-40.6923j Ohm;
	constant_impedance_C 0.0000-40.6923j Ohm;
}
object load {
	name bus118;
	phases ABC;
	nominal_voltage 66.395 kV;
	bustype PQ;
	voltage_A 61.7343-4.1200d kV;
	voltage_B 61.7343-124.1200d kV;
	voltage_C 61.7343+115.8800d kV;
	constant_power_A 4.7000+216.6667j MVA;
	constant_power_B 4.7000+216.6667j MVA;
	constant_power_C 4.7000+216.6667j MVA;
}
object node {
	name bus119;
	phases ABC;
	nominal_voltage 66.395 kV;
	bustype PQ;
	voltage_A 69.2835+5.1700d kV;
	voltage_B 69.2835-114.8300d kV;
	voltage_C 69.2835+125.1700d kV;
}
object load {
	name bus120;
	phases ABC;
	nominal_voltage 66.395 kV;
	bustype PQ;
	voltage_A 63.6332-8.7700d kV;
	voltage_B 63.6332-128.7700d kV;
	voltage_C 63.6332+111.2300d kV;
	constant_power_A 259.0000+71.6667j MVA;
	constant_power_B 259.0000+71.6667j MVA;
	constant_power_C 259.0000+71.6667j MVA;
	constant_impedance_A 0.0000-240.4545j Ohm;
	constant_impedance_B 0.0000-240.4545j Ohm;
	constant_impedance_C 0.0000-240.4545j Ohm;
}
object load {
	name bus121;
	phases ABC;
	nominal_voltage 66.395 kV;
	bustype PQ;
	voltage_A 65.5388-12.6400d kV;
	voltage_B 65.5388-132.6400d kV;
	voltage_C 65.5388+107.3600d kV;
	constant_power_A 178.3333+18.3333j MVA;
	constant_power_B 178.3333+18.3333j MVA;
	constant_power_C 178.3333+18.3333j MVA;
}
object load {
	name bus122;
	phases ABC;
	nominal_voltage 66.395 kV;
	bustype PQ;
	voltage_A 64.5893-14.3600d kV;
	voltage_B 64.5893-134.3600d kV;
	voltage_C 64.5893+105.6400d kV;
	constant_power_A 76.3667+3.9333j MVA;
	constant_power_B 76.3667+3.9333j MVA;
	constant_power_C 76.3667+3.9333j MVA;
}
object load {
	name bus123;
	phases ABC;
	nominal_voltage 66.395 kV;
	bustype PQ;
	voltage_A 66.4351-17.6400d kV;
	voltage_B 66.4351-137.6400d kV;
	voltage_C 66.4351+102.3600d kV;
	constant_power_A 26.0000+0.4667j MVA;
	constant_power_B 26.0000+0.4667j MVA;
	constant_power_C 26.0000+0.4667j MVA;
}
object load {
	name bus124;
	phases ABC;
	nominal_voltage 66.395 kV;
	bustype PQ;
	voltage_A 67.9423-13.4900d kV;
	voltage_B 67.9423-133.4900d kV;
	voltage_C 67.9423+106.5100d kV;
	constant_power_A 92.1333+19.7667j MVA;
	constant_power_B 92.1333+19.7667j MVA;
	constant_power_C 92.1333+19.7667j MVA;
}
object load {
	name bus125;
	phases ABC;
	nominal_voltage 66.395 kV;
	bustype PQ;
	voltage_A 67.0792-18.4300d kV;
	voltage_B 67.0792-138.4300d kV;
	voltage_C 67.0792+101.5700d kV;
	constant_power_A 171.6000+27.5667j MVA;
	constant_power_B 171.6000+27.5667j MVA;
	constant_power_C 171.6000+27.5667j MVA;
}
object load {
	name bus126;
	phases ABC;
	nominal_voltage 66.395 kV;
	bustype PQ;
	voltage_A 66.2492-12.8600d kV;
	voltage_B 66.2492-132.8600d kV;
	voltage_C 66.2492+107.1400d kV;
	constant_power_A 19.3000+1.7000j MVA;
	constant_power_B 19.3000+1.7000j MVA;
	constant_power_C 19.3000+1.7000j MVA;
}
object load {
	name bus127;
	phases ABC;
	nominal_voltage 132.791 kV;
	bustype PQ;
	voltage_A 132.8038-10.5200d kV;
	voltage_B 132.8038-130.5200d kV;
	voltage_C 132.8038+109.4800d kV;
	constant_power_A 126.9333+12.3333j MVA;
	constant_power_B 126.9333+12.3333j MVA;
	constant_power_C 126.9333+12.3333j MVA;
}
object node {
	name bus128;
	phases ABC;
	nominal_voltage 132.791 kV;
	bustype PQ;
	voltage_A 133.1093-4.7800d kV;
	voltage_B 133.1093-124.7800d kV;
	voltage_C 133.1093+115.2200d kV;
}
object node {
	name bus129;
	phases ABC;
	nominal_voltage 132.791 kV;
	bustype PQ;
	voltage_A 133.1624-4.4000d kV;
	voltage_B 133.1624-124.4000d kV;
	voltage_C 133.1624+115.6000d kV;
}
object node {
	name bus130;
	phases ABC;
	nominal_voltage 132.791 kV;
	bustype PQ;
	voltage_A 135.3269+5.5600d kV;
	voltage_B 135.3269-114.4400d kV;
	voltage_C 135.3269+125.5600d kV;
}
object node {
	name bus131;
	phases ABC;
	nominal_voltage 132.791 kV;
	bustype PQ;
	voltage_A 130.9448+6.0600d kV;
	voltage_B 130.9448-113.9400d kV;
	voltage_C 130.9448+126.0600d kV;
}
object node {
	name bus132;
	phases ABC;
	nominal_voltage 132.791 kV;
	bustype PQ;
	voltage_A 133.3881+3.0400d kV;
	voltage_B 133.3881-116.9600d kV;
	voltage_C 133.3881+123.0400d kV;
}
object node {
	name bus133;
	phases ABC;
	nominal_voltage 132.791 kV;
	bustype PQ;
	voltage_A 133.0561-5.4600d kV;
	voltage_B 133.0561-125.4600d kV;
	voltage_C 133.0561+114.5400d kV;
}
object node {
	name bus134;
	phases ABC;
	nominal_voltage 132.791 kV;
	bustype PQ;
	voltage_A 135.7120-8.0400d kV;
	voltage_B 135.7120-128.0400d kV;
	voltage_C 135.7120+111.9600d kV;
}
object load {
	name bus135;
	phases ABC;
	nominal_voltage 132.791 kV;
	bustype PQ;
	voltage_A 135.3534-6.7600d kV;
	voltage_B 135.3534-126.7600d kV;
	voltage_C 135.3534+113.2400d kV;
	constant_power_A 56.4000+13.8667j MVA;
	constant_power_B 56.4000+13.8667j MVA;
	constant_power_C 56.4000+13.8667j MVA;
}
object load {
	name bus136;
	phases ABC;
	nominal_voltage 132.791 kV;
	bustype PQ;
	voltage_A 139.1114+1.5400d kV;
	voltage_B 139.1114-118.4600d kV;
	voltage_C 139.1114+121.5400d kV;
	constant_power_A 18.4000+6.0667j MVA;
	constant_power_B 18.4000+6.0667j MVA;
	constant_power_C 18.4000+6.0667j MVA;
}
object load {
	name bus137;
	phases ABC;
	nominal_voltage 132.791 kV;
	bustype PQ;
	voltage_A 139.0450-1.4500d kV;
	voltage_B 139.0450-121.4500d kV;
	voltage_C 139.0450+118.5500d kV;
	constant_power_A 91.2000+33.2667j MVA;
	constant_power_B 91.2000+33.2667j MVA;
	constant_power_C 91.2000+33.2667j MVA;
}
object load {
	name bus138;
	phases ABC;
	nominal_voltage 132.791 kV;
	bustype PQ;
	voltage_A 140.0940-6.3500d kV;
	voltage_B 140.0940-126.3500d kV;
	voltage_C 140.0940+113.6500d kV;
	constant_power_A 339.7333+45.0667j MVA;
	constant_power_B 339.7333+45.0667j MVA;
	constant_power_C 339.7333+45.0667j MVA;
}
object load {
	name bus139;
	phases ABC;
	nominal_voltage 66.395 kV;
	bustype PQ;
	voltage_A 67.1721-3.5700d kV;
	voltage_B 67.1721-123.5700d kV;
	voltage_C 67.1721+116.4300d kV;
	constant_power_A 198.3333+27.7667j MVA;
	constant_power_B 198.3333+27.7667j MVA;
	constant_power_C 198.3333+27.7667j MVA;
}
object load {
	name bus140;
	phases ABC;
	nominal_voltage 132.791 kV;
	bustype PQ;
	voltage_A 138.5006-3.4400d kV;
	voltage_B 138.5006-123.4400d kV;
	voltage_C 138.5006+116.5600d kV;
	constant_power_A 129.2333+38.2333j MVA;
	constant_power_B 129.2333+38.2333j MVA;
	constant_power_C 129.2333+38.2333j MVA;
}
object load {
	name bus141;
	phases ABC;
	nominal_voltage 132.791 kV;
	bustype PQ;
	voltage_A 139.5629+0.0500d kV;
	voltage_B 139.5629-119.9500d kV;
	voltage_C 139.5629+120.0500d kV;
	constant_power_A 48.3333+19.3333j MVA;
	constant_power_B 48.3333+19.3333j MVA;
	constant_power_C 48.3333+19.3333j MVA;
}
object load {
	name bus142;
	phases ABC;
	nominal_voltage 132.791 kV;
	bustype PQ;
	voltage_A 134.8488-2.7700d kV;
	voltage_B 134.8488-122.7700d kV;
	voltage_C 134.8488+117.2300d kV;
	constant_power_A 18.8333+8.1667j MVA;
	constant_power_B 18.8333+8.1667j MVA;
	constant_power_C 18.8333+8.1667j MVA;
}
object load {
	name bus143;
	phases ABC;
	nominal_voltage 132.791 kV;
	bustype PQ;
	voltage_A 138.5670+4.0300d kV;
	voltage_B 138.5670-115.9700d kV;
	voltage_C 138.5670+124.0300d kV;
	constant_power_A 29.8333+11.8333j MVA;
	constant_power_B 29.8333+11.8333j MVA;
	constant_power_C 29.8333+11.8333j MVA;
}
object node {
	name bus144;
	phases ABC;
	nominal_voltage 132.791 kV;
	bustype PQ;
	voltage_A 134.9152-0.7000d kV;
	voltage_B 134.9152-120.7000d kV;
	voltage_C 134.9152+119.3000d kV;
}
object load {
	name bus145;
	phases ABC;
	nominal_voltage 132.791 kV;
	bustype PQ;
	voltage_A 133.8662-0.1600d kV;
	voltage_B 133.8662-120.1600d kV;
	voltage_C 133.8662+119.8400d kV;
	constant_power_A 8.0000+4.6667j MVA;
	constant_power_B 8.0000+4.6667j MVA;
	constant_power_C 8.0000+4.6667j MVA;
}
object node {
	name bus146;
	phases ABC;
	nominal_voltage 132.791 kV;
	bustype PQ;
	voltage_A 139.8019+4.3200d kV;
	voltage_B 139.8019-115.6800d kV;
	voltage_C 139.8019+124.3200d kV;
}
object node {
	name bus147;
	phases ABC;
	nominal_voltage 132.791 kV;
	bustype PQ;
	voltage_A 139.8019+8.3600d kV;
	voltage_B 139.8019-111.6400d kV;
	voltage_C 139.8019+128.3600d kV;
}
object load {
	name bus148;
	phases ABC;
	nominal_voltage 132.791 kV;
	bustype PQ;
	voltage_A 140.4526+0.2800d kV;
	voltage_B 140.4526-119.7200d kV;
	voltage_C 140.4526+120.2800d kV;
	constant_power_A 21.0000+8.3333j MVA;
	constant_power_B 21.0000+8.3333j MVA;
	constant_power_C 21.0000+8.3333j MVA;
}
object node {
	name bus149;
	phases ABC;
	nominal_voltage 132.791 kV;
	bustype PQ;
	voltage_A 142.5507+5.2300d kV;
	voltage_B 142.5507-114.7700d kV;
	voltage_C 142.5507+125.2300d kV;
}
object node {
	name bus150;
	phases ABC;
	nominal_voltage 132.791 kV;
	bustype PQ;
	voltage_A 131.0510+6.3400d kV;
	voltage_B 131.0510-113.6600d kV;
	voltage_C 131.0510+126.3400d kV;
}
object node {
	name bus151;
	phases ABC;
	nominal_voltage 132.791 kV;
	bustype PQ;
	voltage_A 133.4280+4.1300d kV;
	voltage_B 133.4280-115.8700d kV;
	voltage_C 133.4280+124.1300d kV;
}
object load {
	name bus152;
	phases ABC;
	nominal_voltage 132.791 kV;
	bustype PQ;
	voltage_A 139.8949+9.2400d kV;
	voltage_B 139.8949-110.7600d kV;
	voltage_C 139.8949+129.2400d kV;
	constant_power_A 5.6667+3.0000j MVA;
	constant_power_B 5.6667+3.0000j MVA;
	constant_power_C 5.6667+3.0000j MVA;
}
object node {
	name bus153;
	phases ABC;
	nominal_voltage 132.791 kV;
	bustype PQ;
	voltage_A 138.5670+10.4600d kV;
	voltage_B 138.5670-109.5400d kV;
	voltage_C 138.5670+130.4600d kV;
}
object load {
	name bus154;
	phases ABC;
	nominal_voltage 66.395 kV;
	bustype PQ;
	voltage_A 64.1578-1.8000d kV;
	voltage_B 64.1578-121.8000d kV;
	voltage_C 64.1578+118.2000d kV;
	constant_power_A 23.3333+1.6667j MVA;
	constant_power_B 23.3333+1.6667j MVA;
	constant_power_C 23.3333+1.6667j MVA;
	constant_impedance_A 0.0000-383.3333j Ohm;
	constant_impedance_B 0.0000-383.3333j Ohm;
	constant_impedance_C 0.0000-383.3333j Ohm;
}
object load {
	name bus155;
	phases ABC;
	nominal_voltage 132.791 kV;
	bustype PQ;
	voltage_A 135.1410+6.7500d kV;
	voltage_B 135.1410-113.2500d kV;
	voltage_C 135.1410+126.7500d kV;
	constant_power_A 66.6667+16.6667j MVA;
	constant_power_B 66.6667+16.6667j MVA;
	constant_power_C 66.6667+16.6667j MVA;
}
object load {
	name bus156;
	phases ABC;
	nominal_voltage 66.395 kV;
	bustype PQ;
	voltage_A 63.9387+5.1500d kV;
	voltage_B 63.9387-114.8500d kV;
	voltage_C 63.9387+125.1500d kV;
	constant_power_A 25.0000+16.6667j MVA;
	constant_power_B 25.0000+16.6667j MVA;
	constant_power_C 25.0000+16.6667j MVA;
}
object load {
	name bus157;
	phases ABC;
	nominal_voltage 132.791 kV;
	bustype PQ;
	voltage_A 130.7323-11.9300d kV;
	voltage_B 130.7323-131.9300d kV;
	voltage_C 130.7323+108.0700d kV;
	constant_power_A 41.1667-8.1000j MVA;
	constant_power_B 41.1667-8.1000j MVA;
	constant_power_C 41.1667-8.1000j MVA;
}
object node {
	name bus158;
	phases ABC;
	nominal_voltage 132.791 kV;
	bustype PQ;
	voltage_A 132.6179-11.4000d kV;
	voltage_B 132.6179-131.4000d kV;
	voltage_C 132.6179+108.6000d kV;
}
object load {
	name bus159;
	phases ABC;
	nominal_voltage 132.791 kV;
	bustype PQ;
	voltage_A 131.0244-9.8200d kV;
	voltage_B 131.0244-129.8200d kV;
	voltage_C 131.0244+110.1800d kV;
	constant_power_A 11.0000+5.5000j MVA;
	constant_power_B 11.0000+5.5000j MVA;
	constant_power_C 11.0000+5.5000j MVA;
}
object node {
	name bus160;
	phases ABC;
	nominal_voltage 132.791 kV;
	bustype PQ;
	voltage_A 132.7640-12.5500d kV;
	voltage_B 132.7640-132.5500d kV;
	voltage_C 132.7640+107.4500d kV;
}
object load {
	name bus161;
	phases ABC;
	nominal_voltage 132.791 kV;
	bustype PQ;
	voltage_A 137.5710+8.8500d kV;
	voltage_B 137.5710-111.1500d kV;
	voltage_C 137.5710+128.8500d kV;
	constant_power_A 11.6667+5.0000j MVA;
	constant_power_B 11.6667+5.0000j MVA;
	constant_power_C 11.6667+5.0000j MVA;
}
object load {
	name bus162;
	phases ABC;
	nominal_voltage 132.791 kV;
	bustype PQ;
	voltage_A 131.7017+18.5000d kV;
	voltage_B 131.7017-101.5000d kV;
	voltage_C 131.7017+138.5000d kV;
	constant_power_A 28.3333+8.0000j MVA;
	constant_power_B 28.3333+8.0000j MVA;
	constant_power_C 28.3333+8.0000j MVA;
}
object load {
	name bus163;
	phases ABC;
	nominal_voltage 132.791 kV;
	bustype PQ;
	voltage_A 138.2350+2.9100d kV;
	voltage_B 138.2350-117.0900d kV;
	voltage_C 138.2350+122.9100d kV;
	constant_power_A 0.0000+0.1333j MVA;
	constant_power_B 0.0000+0.1333j MVA;
	constant_power_C 0.0000+0.1333j MVA;
}
object load {
	name bus164;
	phases ABC;
	nominal_voltage 132.791 kV;
	bustype PQ;
	voltage_A 130.6526+9.6600d kV;
	voltage_B 130.6526-110.3400d kV;
	voltage_C 130.6526+129.6600d kV;
	constant_impedance_A 0.0000+249.5283j Ohm;
	constant_impedance_B 0.0000+249.5283j Ohm;
	constant_impedance_C 0.0000+249.5283j Ohm;
}
object node {
	name bus165;
	phases ABC;
	nominal_voltage 132.791 kV;
	bustype PQ;
	voltage_A 132.8171+26.3100d kV;
	voltage_B 132.8171-93.6900d kV;
	voltage_C 132.8171+146.3100d kV;
}
object load {
	name bus166;
	phases ABC;
	nominal_voltage 132.791 kV;
	bustype PQ;
	voltage_A 132.4320+30.2200d kV;
	voltage_B 132.4320-89.7800d kV;
	voltage_C 132.4320+150.2200d kV;
	constant_impedance_A 0.0000+513.5922j Ohm;
	constant_impedance_B 0.0000+513.5922j Ohm;
	constant_impedance_C 0.0000+513.5922j Ohm;
}
object load {
	name bus167;
	phases ABC;
	nominal_voltage 132.791 kV;
	bustype PQ;
	voltage_A 129.0060-6.9100d kV;
	voltage_B 129.0060-126.9100d kV;
	voltage_C 129.0060+113.0900d kV;
	constant_power_A 99.9667+31.9000j MVA;
	constant_power_B 99.9667+31.9000j MVA;
	constant_power_C 99.9667+31.9000j MVA;
}
object node {
	name bus168;
	phases ABC;
	nominal_voltage 132.791 kV;
	bustype PQ;
	voltage_A 133.1093-4.8000d kV;
	voltage_B 133.1093-124.8000d kV;
	voltage_C 133.1093+115.2000d kV;
}
object node {
	name bus169;
	phases ABC;
	nominal_voltage 132.791 kV;
	bustype PQ;
	voltage_A 131.1838-6.6800d kV;
	voltage_B 131.1838-126.6800d kV;
	voltage_C 131.1838+113.3200d kV;
}
object load {
	name bus170;
	phases ABC;
	nominal_voltage 66.395 kV;
	bustype PQ;
	voltage_A 61.6812+0.0900d kV;
	voltage_B 61.6812-119.9100d kV;
	voltage_C 61.6812+120.0900d kV;
	constant_power_A 160.6000+68.3333j MVA;
	constant_power_B 160.6000+68.3333j MVA;
	constant_power_C 160.6000+68.3333j MVA;
}
object load {
	name bus171;
	phases ABC;
	nominal_voltage 66.395 kV;
	bustype PQ;
	voltage_A 65.2599-9.9400d kV;
	voltage_B 65.2599-129.9400d kV;
	voltage_C 65.2599+110.0600d kV;
	constant_power_A 254.5333+97.0333j MVA;
	constant_power_B 254.5333+97.0333j MVA;
	constant_power_C 254.5333+97.0333j MVA;
}
object load {
	name bus172;
	phases ABC;
	nominal_voltage 66.395 kV;
	bustype PQ;
	voltage_A 68.0153-6.2200d kV;
	voltage_B 68.0153-126.2200d kV;
	voltage_C 68.0153+113.7800d kV;
	constant_power_A 8.8333+0.0000j MVA;
	constant_power_B 8.8333+0.0000j MVA;
	constant_power_C 8.8333+0.0000j MVA;
}
object load {
	name bus173;
	phases ABC;
	nominal_voltage 66.395 kV;
	bustype PQ;
	voltage_A 65.3130-12.7500d kV;
	voltage_B 65.3130-132.7500d kV;
	voltage_C 65.3130+107.2500d kV;
	constant_power_A 54.5000+14.3333j MVA;
	constant_power_B 54.5000+14.3333j MVA;
	constant_power_C 54.5000+14.3333j MVA;
	constant_impedance_A 0.0000-249.5283j Ohm;
	constant_impedance_B 0.0000-249.5283j Ohm;
	constant_impedance_C 0.0000-249.5283j Ohm;
}
object node {
	name bus174;
	phases ABC;
	nominal_voltage 66.395 kV;
	bustype PQ;
	voltage_A 70.5251-2.6900d kV;
	voltage_B 70.5251-122.6900d kV;
	voltage_C 70.5251+117.3100d kV;
}
object load {
	name bus175;
	phases ABC;
	nominal_voltage 66.395 kV;
	bustype PQ;
	voltage_A 64.6026-7.2100d kV;
	voltage_B 64.6026-127.2100d kV;
	voltage_C 64.6026+112.7900d kV;
	constant_power_A 58.6667+27.6667j MVA;
	constant_power_B 58.6667+27.6667j MVA;
	constant_power_C 58.6667+27.6667j MVA;
}
object load {
	name bus176;
	phases ABC;
	nominal_voltage 66.395 kV;
	bustype PQ;
	voltage_A 69.8611+4.6700d kV;
	voltage_B 69.8611-115.3300d kV;
	voltage_C 69.8611+124.6700d kV;
	constant_power_A 1.6667+1.3333j MVA;
	constant_power_B 1.6667+1.3333j MVA;
	constant_power_C 1.6667+1.3333j MVA;
}
object load {
	name bus177;
	phases ABC;
	nominal_voltage 66.395 kV;
	bustype PQ;
	voltage_A 66.9065+0.6200d kV;
	voltage_B 66.9065-119.3800d kV;
	voltage_C 66.9065+120.6200d kV;
	constant_power_A 9.3333+4.0000j MVA;
	constant_power_B 9.3333+4.0000j MVA;
	constant_power_C 9.3333+4.0000j MVA;
}
object load {
	name bus178;
	phases ABC;
	nominal_voltage 66.395 kV;
	bustype PQ;
	voltage_A 62.3916-6.5600d kV;
	voltage_B 62.3916-126.5600d kV;
	voltage_C 62.3916+113.4400d kV;
	constant_power_A 142.4667+57.8667j MVA;
	constant_power_B 142.4667+57.8667j MVA;
	constant_power_C 142.4667+57.8667j MVA;
}
object load {
	name bus179;
	phases ABC;
	nominal_voltage 66.395 kV;
	bustype PQ;
	voltage_A 64.3968-9.3700d kV;
	voltage_B 64.3968-129.3700d kV;
	voltage_C 64.3968+110.6300d kV;
	constant_power_A 24.6667+9.6667j MVA;
	constant_power_B 24.6667+9.6667j MVA;
	constant_power_C 24.6667+9.6667j MVA;
	constant_impedance_A 0.0000-293.8889j Ohm;
	constant_impedance_B 0.0000-293.8889j Ohm;
	constant_impedance_C 0.0000-293.8889j Ohm;
}
object load {
	name bus180;
	phases ABC;
	nominal_voltage 66.395 kV;
	bustype PQ;
	voltage_A 65.0209-3.0900d kV;
	voltage_B 65.0209-123.0900d kV;
	voltage_C 65.0209+116.9100d kV;
	constant_power_A 23.1667+16.4333j MVA;
	constant_power_B 23.1667+16.4333j MVA;
	constant_power_C 23.1667+16.4333j MVA;
}
object load {
	name bus181;
	phases ABC;
	nominal_voltage 132.791 kV;
	bustype PQ;
	voltage_A 139.6691-1.3300d kV;
	voltage_B 139.6691-121.3300d kV;
	voltage_C 139.6691+118.6700d kV;
	constant_power_A 24.4667+0.0000j MVA;
	constant_power_B 24.4667+0.0000j MVA;
	constant_power_C 24.4667+0.0000j MVA;
}
object load {
	name bus182;
	phases ABC;
	nominal_voltage 132.791 kV;
	bustype PQ;
	voltage_A 138.7263-4.1900d kV;
	voltage_B 138.7263-124.1900d kV;
	voltage_C 138.7263+115.8100d kV;
	constant_power_A 80.2333+29.6667j MVA;
	constant_power_B 80.2333+29.6667j MVA;
	constant_power_C 80.2333+29.6667j MVA;
}
object load {
	name bus183;
	phases ABC;
	nominal_voltage 66.395 kV;
	bustype PQ;
	voltage_A 64.5163+7.1200d kV;
	voltage_B 64.5163-112.8800d kV;
	voltage_C 64.5163+127.1200d kV;
	constant_power_A 13.3333+1.3333j MVA;
	constant_power_B 13.3333+1.3333j MVA;
	constant_power_C 13.3333+1.3333j MVA;
}
object load {
	name bus184;
	phases ABC;
	nominal_voltage 132.791 kV;
	bustype PQ;
	voltage_A 137.9163-6.8500d kV;
	voltage_B 137.9163-126.8500d kV;
	voltage_C 137.9163+113.1500d kV;
	constant_power_A 45.6000+5.5333j MVA;
	constant_power_B 45.6000+5.5333j MVA;
	constant_power_C 45.6000+5.5333j MVA;
}
object node {
	name bus185;
	phases ABC;
	nominal_voltage 132.791 kV;
	bustype PQ;
	voltage_A 139.7222-4.3300d kV;
	voltage_B 139.7222-124.3300d kV;
	voltage_C 139.7222+115.6700d kV;
}
object load {
	name bus186;
	phases ABC;
	nominal_voltage 132.791 kV;
	bustype PQ;
	voltage_A 141.4219+2.1700d kV;
	voltage_B 141.4219-117.8300d kV;
	voltage_C 141.4219+122.1700d kV;
	constant_power_A 19.9333+8.1000j MVA;
	constant_power_B 19.9333+8.1000j MVA;
	constant_power_C 19.9333+8.1000j MVA;
}
object load {
	name bus187;
	phases ABC;
	nominal_voltage 132.791 kV;
	bustype PQ;
	voltage_A 141.4219+1.4000d kV;
	voltage_B 141.4219-118.6000d kV;
	voltage_C 141.4219+121.4000d kV;
	constant_power_A 19.9333+8.1000j MVA;
	constant_power_B 19.9333+8.1000j MVA;
	constant_power_C 19.9333+8.1000j MVA;
}
object load {
	name bus188;
	phases ABC;
	nominal_voltage 132.791 kV;
	bustype PQ;
	voltage_A 139.8683-0.7200d kV;
	voltage_B 139.8683-120.7200d kV;
	voltage_C 139.8683+119.2800d kV;
	constant_power_A 60.8667+14.5333j MVA;
	constant_power_B 60.8667+14.5333j MVA;
	constant_power_C 60.8667+14.5333j MVA;
}
object load {
	name bus189;
	phases ABC;
	nominal_voltage 38.105 kV;
	bustype PQ;
	voltage_A 38.0099-25.8400d kV;
	voltage_B 38.0099-145.8400d kV;
	voltage_C 38.0099+94.1600d kV;
	constant_power_A 2.3333+0.6667j MVA;
	constant_power_B 2.3333+0.6667j MVA;
	constant_power_C 2.3333+0.6667j MVA;
}
object load {
	name bus190;
	phases ABC;
	nominal_voltage 199.186 kV;
	bustype PQ;
	voltage_A 210.1610-20.6200d kV;
	voltage_B 210.1610-140.6200d kV;
	voltage_C 210.1610+99.3800d kV;
	constant_impedance_A 0.0000+793.5000j Ohm;
	constant_impedance_B 0.0000+793.5000j Ohm;
	constant_impedance_C 0.0000+793.5000j Ohm;
}
object load {
	name bus191;
	phases ABC;
	nominal_voltage 132.791 kV;
	bustype PQ;
	voltage_A 138.5670+12.2500d kV;
	voltage_B 138.5670-107.7500d kV;
	voltage_C 138.5670+132.2500d kV;
	constant_power_A 163.0000+17.6667j MVA;
	constant_power_B 163.0000+17.6667j MVA;
	constant_power_C 163.0000+17.6667j MVA;
}
object load {
	name bus192;
	phases ABC;
	nominal_voltage 132.791 kV;
	bustype PQ;
	voltage_A 124.4779-11.1800d kV;
	voltage_B 124.4779-131.1800d kV;
	voltage_C 124.4779+108.8200d kV;
	constant_power_A 266.6667+24.0000j MVA;
	constant_power_B 266.6667+24.0000j MVA;
	constant_power_C 266.6667+24.0000j MVA;
}
object node {
	name bus193;
	phases ABC;
	nominal_voltage 38.105 kV;
	bustype PQ;
	voltage_A 37.7126-26.0900d kV;
	voltage_B 37.7126-146.0900d kV;
	voltage_C 37.7126+93.9100d kV;
}
object node {
	name bus194;
	phases ABC;
	nominal_voltage 199.186 kV;
	bustype PQ;
	voltage_A 208.9260-19.2100d kV;
	voltage_B 208.9260-139.2100d kV;
	voltage_C 208.9260+100.7900d kV;
}
object node {
	name bus195;
	phases ABC;
	nominal_voltage 199.186 kV;
	bustype PQ;
	voltage_A 206.2968-20.7900d kV;
	voltage_B 206.2968-140.7900d kV;
	voltage_C 206.2968+99.2100d kV;
}
object load {
	name bus196;
	phases ABC;
	nominal_voltage 66.395 kV;
	bustype PQ;
	voltage_A 64.3702-25.3200d kV;
	voltage_B 64.3702-145.3200d kV;
	voltage_C 64.3702+94.6800d kV;
	constant_power_A 3.3333+1.0000j MVA;
	constant_power_B 3.3333+1.0000j MVA;
	constant_power_C 3.3333+1.0000j MVA;
}
object load {
	name bus197;
	phases ABC;
	nominal_voltage 66.395 kV;
	bustype PQ;
	voltage_A 65.7778-23.7200d kV;
	voltage_B 65.7778-143.7200d kV;
	voltage_C 65.7778+96.2800d kV;
	constant_power_A 14.3333+4.6667j MVA;
	constant_power_B 14.3333+4.6667j MVA;
	constant_power_C 14.3333+4.6667j MVA;
}
object load {
	name bus198;
	phases ABC;
	nominal_voltage 66.395 kV;
	bustype PQ;
	voltage_A 67.3912-20.5800d kV;
	voltage_B 67.3912-140.5800d kV;
	voltage_C 67.3912+99.4200d kV;
	constant_power_A 21.3333+7.0000j MVA;
	constant_power_B 21.3333+7.0000j MVA;
	constant_power_C 21.3333+7.0000j MVA;
}
object load {
	name bus199;
	phases ABC;
	nominal_voltage 66.395 kV;
	bustype PQ;
	voltage_A 63.2614-26.0500d kV;
	voltage_B 63.2614-146.0500d kV;
	voltage_C 63.2614+93.9500d kV;
	constant_power_A 11.6667+4.0000j MVA;
	constant_power_B 11.6667+4.0000j MVA;
	constant_power_C 11.6667+4.0000j MVA;
}
object load {
	name bus200;
	phases ABC;
	nominal_voltage 66.395 kV;
	bustype PQ;
	voltage_A 63.4075-25.9300d kV;
	voltage_B 63.4075-145.9300d kV;
	voltage_C 63.4075+94.0700d kV;
	constant_power_A 9.0000+4.0000j MVA;
	constant_power_B 9.0000+4.0000j MVA;
	constant_power_C 9.0000+4.0000j MVA;
}
object load {
	name bus201;
	phases ABC;
	nominal_voltage 38.105 kV;
	bustype PQ;
	voltage_A 36.9315-27.4900d kV;
	voltage_B 36.9315-147.4900d kV;
	voltage_C 36.9315+92.5100d kV;
	constant_power_A 13.6667+4.6667j MVA;
	constant_power_B 13.6667+4.6667j MVA;
	constant_power_C 13.6667+4.6667j MVA;
}
object load {
	name bus202;
	phases ABC;
	nominal_voltage 38.105 kV;
	bustype PQ;
	voltage_A 37.7546-25.3300d kV;
	voltage_B 37.7546-145.3300d kV;
	voltage_C 37.7546+94.6700d kV;
	constant_power_A 12.6667+4.3333j MVA;
	constant_power_B 12.6667+4.3333j MVA;
	constant_power_C 12.6667+4.3333j MVA;
}
object load {
	name bus203;
	phases ABC;
	nominal_voltage 66.395 kV;
	bustype PQ;
	voltage_A 66.6144-22.3500d kV;
	voltage_B 66.6144-142.3500d kV;
	voltage_C 66.6144+97.6500d kV;
	constant_power_A 14.0000+4.6667j MVA;
	constant_power_B 14.0000+4.6667j MVA;
	constant_power_C 14.0000+4.6667j MVA;
}
object load {
	name bus204;
	phases ABC;
	nominal_voltage 38.105 kV;
	bustype PQ;
	voltage_A 37.0306-25.7000d kV;
	voltage_B 37.0306-145.7000d kV;
	voltage_C 37.0306+94.3000d kV;
	constant_power_A 24.0000+8.0000j MVA;
	constant_power_B 24.0000+8.0000j MVA;
	constant_power_C 24.0000+8.0000j MVA;
}
object load {
	name bus205;
	phases ABC;
	nominal_voltage 38.105 kV;
	bustype PQ;
	voltage_A 37.4878-26.0700d kV;
	voltage_B 37.4878-146.0700d kV;
	voltage_C 37.4878+93.9300d kV;
	constant_power_A 0.0000-1.6667j MVA;
	constant_power_B 0.0000-1.6667j MVA;
	constant_power_C 0.0000-1.6667j MVA;
}
object load {
	name bus206;
	phases ABC;
	nominal_voltage 38.105 kV;
	bustype PQ;
	voltage_A 38.0746-27.4100d kV;
	voltage_B 38.0746-147.4100d kV;
	voltage_C 38.0746+92.5900d kV;
	constant_power_A 4.0000+0.6667j MVA;
	constant_power_B 4.0000+0.6667j MVA;
	constant_power_C 4.0000+0.6667j MVA;
}
object load {
	name bus207;
	phases ABC;
	nominal_voltage 38.105 kV;
	bustype PQ;
	voltage_A 38.6272-27.4400d kV;
	voltage_B 38.6272-147.4400d kV;
	voltage_C 38.6272+92.5600d kV;
	constant_power_A -7.0000-4.7333j MVA;
	constant_power_B -7.0000-4.7333j MVA;
	constant_power_C -7.0000-4.7333j MVA;
}
object load {
	name bus208;
	phases ABC;
	nominal_voltage 38.105 kV;
	bustype PQ;
	voltage_A 37.8346-26.2800d kV;
	voltage_B 37.8346-146.2800d kV;
	voltage_C 37.8346+93.7200d kV;
	constant_power_A 2.3333+0.6667j MVA;
	constant_power_B 2.3333+0.6667j MVA;
	constant_power_C 2.3333+0.6667j MVA;
}
object load {
	name bus209;
	phases ABC;
	nominal_voltage 38.105 kV;
	bustype PQ;
	voltage_A 38.1013-25.6600d kV;
	voltage_B 38.1013-145.6600d kV;
	voltage_C 38.1013+94.3400d kV;
	constant_power_A 12.6667+4.3333j MVA;
	constant_power_B 12.6667+4.3333j MVA;
	constant_power_C 12.6667+4.3333j MVA;
}
object node {
	name bus210;
	phases ABC;
	nominal_voltage 66.395 kV;
	bustype PQ;
	voltage_A 64.9877-24.2200d kV;
	voltage_B 64.9877-144.2200d kV;
	voltage_C 64.9877+95.7800d kV;
}
object load {
	name bus211;
	phases ABC;
	nominal_voltage 66.395 kV;
	bustype PQ;
	voltage_A 66.5082-23.3100d kV;
	voltage_B 66.5082-143.3100d kV;
	voltage_C 66.5082+96.6900d kV;
	constant_power_A 32.0000+2.3333j MVA;
	constant_power_B 32.0000+2.3333j MVA;
	constant_power_C 32.0000+2.3333j MVA;
}
object node {
	name bus212;
	phases ABC;
	nominal_voltage 79.674 kV;
	bustype PQ;
	voltage_A 80.7260-22.5100d kV;
	voltage_B 80.7260-142.5100d kV;
	voltage_C 80.7260+97.4900d kV;
}
object node {
	name bus213;
	phases ABC;
	nominal_voltage 9.526 kV;
	bustype PQ;
	voltage_A 9.6215-11.6700d kV;
	voltage_B 9.6215-131.6700d kV;
	voltage_C 9.6215+108.3300d kV;
}
object load {
	name bus214;
	phases ABC;
	nominal_voltage 79.674 kV;
	bustype PQ;
	voltage_A 79.0290-17.5300d kV;
	voltage_B 79.0290-137.5300d kV;
	voltage_C 79.0290+102.4700d kV;
	constant_power_A 7.3333+5.3333j MVA;
	constant_power_B 7.3333+5.3333j MVA;
	constant_power_C 7.3333+5.3333j MVA;
}
object load {
	name bus215;
	phases ABC;
	nominal_voltage 79.674 kV;
	bustype PQ;
	voltage_A 78.6067-20.2300d kV;
	voltage_B 78.6067-140.2300d kV;
	voltage_C 78.6067+99.7700d kV;
	constant_power_A 15.6667+8.6667j MVA;
	constant_power_B 15.6667+8.6667j MVA;
	constant_power_C 15.6667+8.6667j MVA;
}
object load {
	name bus216;
	phases ABC;
	nominal_voltage 79.674 kV;
	bustype PQ;
	voltage_A 77.6904-22.5300d kV;
	voltage_B 77.6904-142.5300d kV;
	voltage_C 77.6904+97.4700d kV;
	constant_power_A 58.6667+35.0000j MVA;
	constant_power_B 58.6667+35.0000j MVA;
	constant_power_C 58.6667+35.0000j MVA;
}
object load {
	name bus217;
	phases ABC;
	nominal_voltage 79.674 kV;
	bustype PQ;
	voltage_A 81.3873-22.2000d kV;
	voltage_B 81.3873-142.2000d kV;
	voltage_C 81.3873+97.8000d kV;
	constant_power_A 33.3333+25.0000j MVA;
	constant_power_B 33.3333+25.0000j MVA;
	constant_power_C 33.3333+25.0000j MVA;
}
object load {
	name bus218;
	phases ABC;
	nominal_voltage 79.674 kV;
	bustype PQ;
	voltage_A 80.2719-22.6300d kV;
	voltage_B 80.2719-142.6300d kV;
	voltage_C 80.2719+97.3700d kV;
	constant_power_A 43.6667+32.0000j MVA;
	constant_power_B 43.6667+32.0000j MVA;
	constant_power_C 43.6667+32.0000j MVA;
}
object node {
	name bus219;
	phases ABC;
	nominal_voltage 199.186 kV;
	bustype PQ;
	voltage_A 210.2207-21.1500d kV;
	voltage_B 210.2207-141.1500d kV;
	voltage_C 210.2207+98.8500d kV;
}
object load {
	name bus220;
	phases ABC;
	nominal_voltage 79.674 kV;
	bustype PQ;
	voltage_A 80.3117-21.7300d kV;
	voltage_B 80.3117-141.7300d kV;
	voltage_C 80.3117+98.2700d kV;
	constant_power_A 95.0000+33.3333j MVA;
	constant_power_B 95.0000+33.3333j MVA;
	constant_power_C 95.0000+33.3333j MVA;
}
object load {
	name bus221;
	phases ABC;
	nominal_voltage 79.674 kV;
	bustype PQ;
	voltage_A 79.6743-22.4900d kV;
	voltage_B 79.6743-142.4900d kV;
	voltage_C 79.6743+97.5100d kV;
	constant_power_A 57.0000+23.3333j MVA;
	constant_power_B 57.0000+23.3333j MVA;
	constant_power_C 57.0000+23.3333j MVA;
}
object load {
	name bus222;
	phases ABC;
	nominal_voltage 11.547 kV;
	bustype PQ;
	voltage_A 12.1244-23.1700d kV;
	voltage_B 12.1244-143.1700d kV;
	voltage_C 12.1244+96.8300d kV;
	constant_power_A 109.3333+62.6667j MVA;
	constant_power_B 109.3333+62.6667j MVA;
	constant_power_C 109.3333+62.6667j MVA;
}
object load {
	name bus223;
	phases ABC;
	nominal_voltage 79.674 kV;
	bustype PQ;
	voltage_A 79.3955-22.7000d kV;
	voltage_B 79.3955-142.7000d kV;
	voltage_C 79.3955+97.3000d kV;
	constant_power_A 142.6667+77.3333j MVA;
	constant_power_B 142.6667+77.3333j MVA;
	constant_power_C 142.6667+77.3333j MVA;
}
object load {
	name bus224;
	phases ABC;
	nominal_voltage 132.791 kV;
	bustype PQ;
	voltage_A 132.8171-21.5500d kV;
	voltage_B 132.8171-141.5500d kV;
	voltage_C 132.8171+98.4500d kV;
	constant_power_A 57.6667+33.0000j MVA;
	constant_power_B 57.6667+33.0000j MVA;
	constant_power_C 57.6667+33.0000j MVA;
}
object load {
	name bus225;
	phases ABC;
	nominal_voltage 132.791 kV;
	bustype PQ;
	voltage_A 125.5269-11.3400d kV;
	voltage_B 125.5269-131.3400d kV;
	voltage_C 125.5269+108.6600d kV;
	constant_power_A 136.6667+13.3333j MVA;
	constant_power_B 136.6667+13.3333j MVA;
	constant_power_C 136.6667+13.3333j MVA;
}
object node {
	name bus226;
	phases ABC;
	nominal_voltage 132.791 kV;
	bustype PQ;
	voltage_A 135.1808-21.6100d kV;
	voltage_B 135.1808-141.6100d kV;
	voltage_C 135.1808+98.3900d kV;
}
object load {
	name bus227;
	phases ABC;
	nominal_voltage 15.588 kV;
	bustype PQ;
	voltage_A 15.5885-27.2200d kV;
	voltage_B 15.5885-147.2200d kV;
	voltage_C 15.5885+92.7800d kV;
	constant_power_A 179.3333+123.0000j MVA;
	constant_power_B 179.3333+123.0000j MVA;
	constant_power_C 179.3333+123.0000j MVA;
}
object load {
	name bus228;
	phases ABC;
	nominal_voltage 79.674 kV;
	bustype PQ;
	voltage_A 83.0446-20.9400d kV;
	voltage_B 83.0446-140.9400d kV;
	voltage_C 83.0446+99.0600d kV;
	constant_power_A 74.3333+49.3333j MVA;
	constant_power_B 74.3333+49.3333j MVA;
	constant_power_C 74.3333+49.3333j MVA;
}
object load {
	name bus229;
	phases ABC;
	nominal_voltage 79.674 kV;
	bustype PQ;
	voltage_A 83.6262-19.9400d kV;
	voltage_B 83.6262-139.9400d kV;
	voltage_C 83.6262+100.0600d kV;
	constant_power_A 32.0000+15.3333j MVA;
	constant_power_B 32.0000+15.3333j MVA;
	constant_power_C 32.0000+15.3333j MVA;
}
object node {
	name bus230;
	phases ABC;
	nominal_voltage 11.547 kV;
	bustype PQ;
	voltage_A 12.0089-13.8200d kV;
	voltage_B 12.0089-133.8200d kV;
	voltage_C 12.0089+106.1800d kV;
}
object load {
	name bus231;
	phases ABC;
	nominal_voltage 199.186 kV;
	bustype PQ;
	voltage_A 209.8423-21.2200d kV;
	voltage_B 209.8423-141.2200d kV;
	voltage_C 209.8423+98.7800d kV;
	constant_power_A 53.0000+35.6667j MVA;
	constant_power_B 53.0000+35.6667j MVA;
	constant_power_C 53.0000+35.6667j MVA;
	constant_impedance_A 0.0000+396.7500j Ohm;
	constant_impedance_B 0.0000+396.7500j Ohm;
	constant_impedance_C 0.0000+396.7500j Ohm;
}
object load {
	name bus232;
	phases ABC;
	nominal_voltage 79.674 kV;
	bustype PQ;
	voltage_A 82.9729-23.1900d kV;
	voltage_B 82.9729-143.1900d kV;
	voltage_C 82.9729+96.8100d kV;
	constant_power_A 149.3333+47.6667j MVA;
	constant_power_B 149.3333+47.6667j MVA;
	constant_power_C 149.3333+47.6667j MVA;
}
object load {
	name bus233;
	phases ABC;
	nominal_voltage 38.105 kV;
	bustype PQ;
	voltage_A 38.1051-25.9000d kV;
	voltage_B 38.1051-145.9000d kV;
	voltage_C 38.1051+94.1000d kV;
	constant_power_A 134.6667+70.6667j MVA;
	constant_power_B 134.6667+70.6667j MVA;
	constant_power_C 134.6667+70.6667j MVA;
}
object load {
	name bus234;
	phases ABC;
	nominal_voltage 79.674 kV;
	bustype PQ;
	voltage_A 82.7577-20.8900d kV;
	voltage_B 82.7577-140.8900d kV;
	voltage_C 82.7577+99.1100d kV;
	constant_power_A 190.6667+81.3333j MVA;
	constant_power_B 190.6667+81.3333j MVA;
	constant_power_C 190.6667+81.3333j MVA;
}
object load {
	name bus235;
	phases ABC;
	nominal_voltage 79.674 kV;
	bustype PQ;
	voltage_A 80.4312-21.0300d kV;
	voltage_B 80.4312-141.0300d kV;
	voltage_C 80.4312+98.9700d kV;
	constant_power_A 89.6667+52.3333j MVA;
	constant_power_B 89.6667+52.3333j MVA;
	constant_power_C 89.6667+52.3333j MVA;
}
object node {
	name bus236;
	phases ABC;
	nominal_voltage 11.547 kV;
	bustype PQ;
	voltage_A 11.7375-15.4000d kV;
	voltage_B 11.7375-135.4000d kV;
	voltage_C 11.7375+104.6000d kV;
}
object node {
	name bus237;
	phases ABC;
	nominal_voltage 199.186 kV;
	bustype PQ;
	voltage_A 210.3004-21.1000d kV;
	voltage_B 210.3004-141.1000d kV;
	voltage_C 210.3004+98.9000d kV;
}
object load {
	name bus238;
	phases ABC;
	nominal_voltage 79.674 kV;
	bustype PQ;
	voltage_A 80.4711-20.9400d kV;
	voltage_B 80.4711-140.9400d kV;
	voltage_C 80.4711+99.0600d kV;
	constant_power_A 85.0000+49.6667j MVA;
	constant_power_B 85.0000+49.6667j MVA;
	constant_power_C 85.0000+49.6667j MVA;
	constant_impedance_A 0.0000+126.9600j Ohm;
	constant_impedance_B 0.0000+126.9600j Ohm;
	constant_impedance_C 0.0000+126.9600j Ohm;
}
object node {
	name bus239;
	phases ABC;
	nominal_voltage 79.674 kV;
	bustype PQ;
	voltage_A 79.6743-15.8600d kV;
	voltage_B 79.6743-135.8600d kV;
	voltage_C 79.6743+104.1400d kV;
}
object load {
	name bus240;
	phases ABC;
	nominal_voltage 132.791 kV;
	bustype PQ;
	voltage_A 135.9377-20.1400d kV;
	voltage_B 135.9377-140.1400d kV;
	voltage_C 135.9377+99.8600d kV;
	constant_impedance_A 0.0000+377.8571j Ohm;
	constant_impedance_B 0.0000+377.8571j Ohm;
	constant_impedance_C 0.0000+377.8571j Ohm;
}
object node {
	name bus241;
	phases ABC;
	nominal_voltage 11.547 kV;
	bustype PQ;
	voltage_A 12.1244-16.5000d kV;
	voltage_B 12.1244-136.5000d kV;
	voltage_C 12.1244+103.5000d kV;
}
object node {
	name bus242;
	phases ABC;
	nominal_voltage 79.674 kV;
	bustype PQ;
	voltage_A 79.1166-17.5300d kV;
	voltage_B 79.1166-137.5300d kV;
	voltage_C 79.1166+102.4700d kV;
}
object load {
	name bus243;
	phases ABC;
	nominal_voltage 38.105 kV;
	bustype PQ;
	voltage_A 38.4862-19.2700d kV;
	voltage_B 38.4862-139.2700d kV;
	voltage_C 38.4862+100.7300d kV;
...